File D:\Cesar\2016-3\Analisi Estructural Matricial\Cerchas3D\SAP2000\CerchaEjercicio1.$2k was saved on m/d/yy at h:mm:ss
 
TABLE:  "ACTIVE DEGREES OF FREEDOM"
   UX=Yes   UY=Yes   UZ=Yes   RX=Yes   RY=Yes   RZ=Yes
 
TABLE:  "ANALYSIS OPTIONS"
   Solver=Advanced   SolverProc=Auto   Force32Bit=No   StiffCase=None   GeomMod=None
 
TABLE:  "AUTO WAVE 3 - WAVE CHARACTERISTICS - GENERAL"
   WaveChar=Default   WaveType="From Theory"   KinFactor=1   SWaterDepth=45   WaveHeight=18   WavePeriod=12   WaveTheory=Linear
 
TABLE:  "CASE - MODAL 1 - GENERAL"
   Case=MODAL   ModeType=Eigen   MaxNumModes=12   MinNumModes=1   EigenShift=0   EigenCutoff=0   EigenTol=1E-09   AutoShift=Yes
 
TABLE:  "CASE - STATIC 1 - LOAD ASSIGNMENTS"
   Case=DEAD   LoadType="Load pattern"   LoadName=DEAD   LoadSF=1
 
TABLE:  "CONNECTIVITY - FRAME"
   Frame=7   JointI=1   JointJ=2   IsCurved=No   GUID=3fdf891c-3125-42f6-b32d-e7133a1f5b98
   Frame=8   JointI=2   JointJ=3   IsCurved=No   GUID=e4d35f9b-3533-45de-b35d-2a634eb5ee97
   Frame=9   JointI=3   JointJ=4   IsCurved=No   GUID=8afb96a8-829a-4c86-9ef0-a450ad8219cc
   Frame=10   JointI=4   JointJ=1   IsCurved=No   GUID=8262c90c-2a64-4a26-ae37-8d1b52a886f6
   Frame=11   JointI=1   JointJ=3   IsCurved=No   GUID=862904d6-b624-4296-a9c7-67b93d645ead
   Frame=12   JointI=1   JointJ=5   IsCurved=No   GUID=f0948c70-6b75-4104-846a-66c5beaed85e
   Frame=13   JointI=4   JointJ=5   IsCurved=No   GUID=3cb5cf22-3670-41d5-b5b5-a75c1ad3a3de
   Frame=14   JointI=3   JointJ=5   IsCurved=No   GUID=82ebc91b-d1a3-471f-9f6d-b27b42152dfc
   Frame=15   JointI=2   JointJ=5   IsCurved=No   GUID=2340c6b6-5907-46e3-bd6c-03ea48cbd66f
 
TABLE:  "COORDINATE SYSTEMS"
   Name=GLOBAL   Type=Cartesian   X=0   Y=0   Z=0   AboutZ=0   AboutY=0   AboutX=0
 
TABLE:  "DATABASE DOCUMENTATION"
 
TABLE:  "DATABASE FORMAT TYPES"
   UnitsCurr=Yes   OverrideE=No
 
TABLE:  "FRAME AUTO MESH ASSIGNMENTS"
   Frame=7   AutoMesh=Yes   AtJoints=Yes   AtFrames=No   NumSegments=0   MaxLength=0   MaxDegrees=0
   Frame=8   AutoMesh=Yes   AtJoints=Yes   AtFrames=No   NumSegments=0   MaxLength=0   MaxDegrees=0
   Frame=9   AutoMesh=Yes   AtJoints=Yes   AtFrames=No   NumSegments=0   MaxLength=0   MaxDegrees=0
   Frame=10   AutoMesh=Yes   AtJoints=Yes   AtFrames=No   NumSegments=0   MaxLength=0   MaxDegrees=0
   Frame=11   AutoMesh=Yes   AtJoints=Yes   AtFrames=No   NumSegments=0   MaxLength=0   MaxDegrees=0
   Frame=12   AutoMesh=Yes   AtJoints=Yes   AtFrames=No   NumSegments=0   MaxLength=0   MaxDegrees=0
   Frame=13   AutoMesh=Yes   AtJoints=Yes   AtFrames=No   NumSegments=0   MaxLength=0   MaxDegrees=0
   Frame=14   AutoMesh=Yes   AtJoints=Yes   AtFrames=No   NumSegments=0   MaxLength=0   MaxDegrees=0
   Frame=15   AutoMesh=Yes   AtJoints=Yes   AtFrames=No   NumSegments=0   MaxLength=0   MaxDegrees=0
 
TABLE:  "FRAME DESIGN PROCEDURES"
   Frame=7   DesignProc="From Material"
   Frame=8   DesignProc="From Material"
   Frame=9   DesignProc="From Material"
   Frame=10   DesignProc="From Material"
   Frame=11   DesignProc="From Material"
   Frame=12   DesignProc="From Material"
   Frame=13   DesignProc="From Material"
   Frame=14   DesignProc="From Material"
   Frame=15   DesignProc="From Material"
 
TABLE:  "FRAME LOAD TRANSFER OPTIONS"
   Frame=7   Transfer=Yes
   Frame=8   Transfer=Yes
   Frame=9   Transfer=Yes
   Frame=10   Transfer=Yes
   Frame=11   Transfer=Yes
   Frame=12   Transfer=Yes
   Frame=13   Transfer=Yes
   Frame=14   Transfer=Yes
   Frame=15   Transfer=Yes
 
TABLE:  "FRAME OUTPUT STATION ASSIGNMENTS"
   Frame=7   StationType=MaxStaSpcg   MaxStaSpcg=0,5   AddAtElmInt=Yes   AddAtPtLoad=Yes
   Frame=8   StationType=MaxStaSpcg   MaxStaSpcg=0,5   AddAtElmInt=Yes   AddAtPtLoad=Yes
   Frame=9   StationType=MaxStaSpcg   MaxStaSpcg=0,5   AddAtElmInt=Yes   AddAtPtLoad=Yes
   Frame=10   StationType=MaxStaSpcg   MaxStaSpcg=0,5   AddAtElmInt=Yes   AddAtPtLoad=Yes
   Frame=11   StationType=MaxStaSpcg   MaxStaSpcg=0,5   AddAtElmInt=Yes   AddAtPtLoad=Yes
   Frame=12   StationType=MinNumSta   MinNumSta=3   AddAtElmInt=Yes   AddAtPtLoad=Yes
   Frame=13   StationType=MinNumSta   MinNumSta=3   AddAtElmInt=Yes   AddAtPtLoad=Yes
   Frame=14   StationType=MinNumSta   MinNumSta=3   AddAtElmInt=Yes   AddAtPtLoad=Yes
   Frame=15   StationType=MinNumSta   MinNumSta=3   AddAtElmInt=Yes   AddAtPtLoad=Yes
 
TABLE:  "FRAME SECTION ASSIGNMENTS"
   Frame=7   AutoSelect=N.A.   AnalSect=2EAVIGA   MatProp=Default
   Frame=8   AutoSelect=N.A.   AnalSect=EAViga   MatProp=Default
   Frame=9   AutoSelect=N.A.   AnalSect=2EAVIGA   MatProp=Default
   Frame=10   AutoSelect=N.A.   AnalSect=EAViga   MatProp=Default
   Frame=11   AutoSelect=N.A.   AnalSect=EAViga   MatProp=Default
   Frame=12   AutoSelect=N.A.   AnalSect=EAViga   MatProp=Default
   Frame=13   AutoSelect=N.A.   AnalSect=EAViga   MatProp=Default
   Frame=14   AutoSelect=N.A.   AnalSect=2EAVIGA   MatProp=Default
   Frame=15   AutoSelect=N.A.   AnalSect=2EAVIGA   MatProp=Default
 
TABLE:  "FRAME SECTION PROPERTIES 01 - GENERAL"
   SectionName=2EAVIGA   Material=2E   Shape=Rectangular   t3=1   t2=1   Area=1   TorsConst=0,140833333333333   I33=0,0833333333333333   I22=0,0833333333333333   I23=0   AS2=0,833333333333333   AS3=0,833333333333333   S33=0,166666666666667 _
        S22=0,166666666666667   Z33=0,25   Z22=0,25   R33=0,288675134594813   R22=0,288675134594813   Color=Cyan   FromFile=No   AMod=1   A2Mod=1   A3Mod=1   JMod=1   I2Mod=1   I3Mod=1   MMod=1   WMod=1   Notes="Added 27/09/2016 7:40:38 p. m."
   SectionName=EAViga   Material=E   Shape=Rectangular   t3=1   t2=1   Area=1   TorsConst=0,140833333333333   I33=0,0833333333333333   I22=0,0833333333333333   I23=0   AS2=0,833333333333333   AS3=0,833333333333333   S33=0,166666666666667 _
        S22=0,166666666666667   Z33=0,25   Z22=0,25   R33=0,288675134594813   R22=0,288675134594813   Color=Blue   FromFile=No   AMod=1   A2Mod=1   A3Mod=1   JMod=1   I2Mod=1   I3Mod=1   MMod=1   WMod=1   Notes="Added 25/09/2016 4:13:07 p. m."
 
TABLE:  "FRAME SECTION PROPERTIES 03 - CONCRETE BEAM"
   SectionName=2EAVIGA   RebarMatL=A615Gr60   RebarMatC=A615Gr60   TopCover=0,06   BotCover=0,06   TopLeftArea=0   TopRghtArea=0   BotLeftArea=0   BotRghtArea=0
   SectionName=EAViga   RebarMatL=A615Gr60   RebarMatC=A615Gr60   TopCover=0,06   BotCover=0,06   TopLeftArea=0   TopRghtArea=0   BotLeftArea=0   BotRghtArea=0
 
TABLE:  "FRAME SECTION PROPERTIES 13 - TIME DEPENDENT"
   SectionName=2EAVIGA   TypeSize=Auto   AutoSFSize=1
   SectionName=EAViga   TypeSize=Auto   AutoSFSize=1
 
TABLE:  "FUNCTION - PLOT FUNCTIONS"
   PlotFunc="Input Energy"   Type=Energy   Component=Input   Mode=All
 
TABLE:  "FUNCTION - POWER SPECTRAL DENSITY - USER"
   Name=UNIFPSD   Frequency=0   Value=1
   Name=UNIFPSD   Frequency=1   Value=1
 
TABLE:  "FUNCTION - RESPONSE SPECTRUM - USER"
   Name=UNIFRS   Period=0   Accel=1   FuncDamp=0,05
   Name=UNIFRS   Period=1   Accel=1
 
TABLE:  "FUNCTION - STEADY STATE - USER"
   Name=UNIFSS   Frequency=0   Value=1
   Name=UNIFSS   Frequency=1   Value=1
 
TABLE:  "FUNCTION - TIME HISTORY - USER"
   Name=RAMPTH   Time=0   Value=0
   Name=RAMPTH   Time=1   Value=1
   Name=RAMPTH   Time=4   Value=1
   Name=UNIFTH   Time=0   Value=1
   Name=UNIFTH   Time=1   Value=1
 
TABLE:  "GRID LINES"
   CoordSys=GLOBAL   AxisDir=X   GridID=A   XRYZCoord=0   LineType=Primary   LineColor=Gray8Dark   Visible=Yes   BubbleLoc=End   AllVisible=Yes   BubbleSize=0,25
   CoordSys=GLOBAL   AxisDir=X   GridID=B   XRYZCoord=1   LineType=Primary   LineColor=Gray8Dark   Visible=Yes   BubbleLoc=End
   CoordSys=GLOBAL   AxisDir=X   GridID=C   XRYZCoord=2   LineType=Primary   LineColor=Gray8Dark   Visible=Yes   BubbleLoc=End
   CoordSys=GLOBAL   AxisDir=X   GridID=D   XRYZCoord=3   LineType=Primary   LineColor=Gray8Dark   Visible=Yes   BubbleLoc=End
   CoordSys=GLOBAL   AxisDir=X   GridID=E   XRYZCoord=4   LineType=Primary   LineColor=Gray8Dark   Visible=Yes   BubbleLoc=End
   CoordSys=GLOBAL   AxisDir=Y   GridID=1   XRYZCoord=0   LineType=Primary   LineColor=Gray8Dark   Visible=Yes   BubbleLoc=Start
   CoordSys=GLOBAL   AxisDir=Y   GridID=2   XRYZCoord=1   LineType=Primary   LineColor=Gray8Dark   Visible=Yes   BubbleLoc=Start
   CoordSys=GLOBAL   AxisDir=Y   GridID=3   XRYZCoord=2   LineType=Primary   LineColor=Gray8Dark   Visible=Yes   BubbleLoc=Start
   CoordSys=GLOBAL   AxisDir=Y   GridID=4   XRYZCoord=3   LineType=Primary   LineColor=Gray8Dark   Visible=Yes   BubbleLoc=Start
   CoordSys=GLOBAL   AxisDir=Y   GridID=5   XRYZCoord=4   LineType=Primary   LineColor=Gray8Dark   Visible=Yes   BubbleLoc=Start
   CoordSys=GLOBAL   AxisDir=Z   GridID=Z1   XRYZCoord=0   LineType=Primary   LineColor=Gray8Dark   Visible=Yes   BubbleLoc=End
   CoordSys=GLOBAL   AxisDir=Z   GridID=Z2   XRYZCoord=1   LineType=Primary   LineColor=Gray8Dark   Visible=Yes   BubbleLoc=End
   CoordSys=GLOBAL   AxisDir=Z   GridID=Z3   XRYZCoord=2   LineType=Primary   LineColor=Gray8Dark   Visible=Yes   BubbleLoc=End
   CoordSys=GLOBAL   AxisDir=Z   GridID=Z4   XRYZCoord=3   LineType=Primary   LineColor=Gray8Dark   Visible=Yes   BubbleLoc=End
   CoordSys=GLOBAL   AxisDir=Z   GridID=Z5   XRYZCoord=4   LineType=Primary   LineColor=Gray8Dark   Visible=Yes   BubbleLoc=End
 
TABLE:  "GROUPS 1 - DEFINITIONS"
   GroupName=ALL   Selection=Yes   SectionCut=Yes   Steel=Yes   Concrete=Yes   Aluminum=Yes   ColdFormed=Yes   Stage=Yes   Bridge=Yes   AutoSeismic=No   AutoWind=No   SelDesSteel=No   SelDesAlum=No   SelDesCold=No   MassWeight=Yes   Color=Red
 
TABLE:  "JOINT COORDINATES"
   Joint=1   CoordSys=GLOBAL   CoordType=Cartesian   XorR=0   Y=0   Z=0   SpecialJt=No   GUID=3dc69a12-dd8a-4db5-ab8a-6eb66ca12ca1
   Joint=2   CoordSys=GLOBAL   CoordType=Cartesian   XorR=4   Y=0   Z=0   SpecialJt=No   GUID=3dc69a12-dd8a-4db5-ab8a-6eb66ca12ca1
   Joint=3   CoordSys=GLOBAL   CoordType=Cartesian   XorR=4   Y=3   Z=0   SpecialJt=No   GUID=3dc69a12-dd8a-4db5-ab8a-6eb66ca12ca1
   Joint=4   CoordSys=GLOBAL   CoordType=Cartesian   XorR=0   Y=3   Z=0   SpecialJt=No   GUID=3dc69a12-dd8a-4db5-ab8a-6eb66ca12ca1
   Joint=5   CoordSys=GLOBAL   CoordType=Cartesian   XorR=1   Y=2   Z=2   SpecialJt=Yes   GUID=3dc69a12-dd8a-4db5-ab8a-6eb66ca12ca1
 
TABLE:  "JOINT LOADS - FORCE"
   Joint=5   LoadPat=DEAD   CoordSys=GLOBAL   F1=0   F2=40   F3=-80   M1=0   M2=0   M3=0   GUID=54e48a26-411c-4ba5-94ac-46da50f15376
 
TABLE:  "JOINT PATTERN DEFINITIONS"
   Pattern=Default
 
TABLE:  "JOINT RESTRAINT ASSIGNMENTS"
   Joint=1   U1=Yes   U2=Yes   U3=Yes   R1=No   R2=No   R3=No
   Joint=2   U1=No   U2=No   U3=Yes   R1=No   R2=No   R3=No
   Joint=3   U1=No   U2=No   U3=Yes   R1=No   R2=No   R3=No
   Joint=4   U1=Yes   U2=Yes   U3=Yes   R1=No   R2=No   R3=No
 
TABLE:  "LOAD CASE DEFINITIONS"
   Case=DEAD   Type=LinStatic   InitialCond=Zero   DesTypeOpt="Prog Det"   DesignType=Dead   DesActOpt="Prog Det"   DesignAct=Non-Composite   AutoType=None   RunCase=Yes
   Case=MODAL   Type=LinModal   InitialCond=Zero   DesTypeOpt="Prog Det"   DesignType=Other   DesActOpt="Prog Det"   DesignAct=Other   AutoType=None   RunCase=Yes
 
TABLE:  "LOAD PATTERN DEFINITIONS"
   LoadPat=DEAD   DesignType=Dead   SelfWtMult=0   GUID=0fa5179b-0525-4449-b717-ca062ef63816
 
TABLE:  "MASS SOURCE"
   MassSource=MSSSRC1   Elements=Yes   Masses=Yes   Loads=No   IsDefault=Yes
 
TABLE:  "MATERIAL PROPERTIES 01 - GENERAL"
   Material=2E   Type=Concrete   SymType=Isotropic   TempDepend=No   Color=Blue   Notes="Customary f'c 4000 psi 25/09/2016 4:12:02 p. m."
   Material=4000Psi   Type=Concrete   SymType=Isotropic   TempDepend=No   Color=Blue   Notes="Customary f'c 4000 psi 25/09/2016 4:12:02 p. m."
   Material=A615Gr60   Type=Rebar   SymType=Uniaxial   TempDepend=No   Color=Gray8Dark   Notes="ASTM A615 Grade 60 25/09/2016 4:13:07 p. m."
   Material=A992Fy50   Type=Steel   SymType=Isotropic   TempDepend=No   Color=Gray8Dark   Notes="ASTM A992 Grade 50 25/09/2016 4:12:02 p. m."
   Material=E   Type=Concrete   SymType=Isotropic   TempDepend=No   Color=Blue   Notes="Customary f'c 4000 psi 25/09/2016 4:12:02 p. m."
 
TABLE:  "MATERIAL PROPERTIES 02 - BASIC MECHANICAL PROPERTIES"
   Material=2E   UnitWeight=23,5631216161854   UnitMass=2,40276960558926   E1=2   G12=0,833333333333333   U12=0,2   A1=9,89999952793124E-06
   Material=4000Psi   UnitWeight=23,5631216161854   UnitMass=2,40276960558926   E1=24855578,0600518   G12=10356490,8583549   U12=0,2   A1=9,89999952793124E-06
   Material=A615Gr60   UnitWeight=76,9728639422648   UnitMass=7,84904737995992   E1=199947978,795958   A1=1,16999994421006E-05
   Material=A992Fy50   UnitWeight=76,9728639422648   UnitMass=7,84904737995992   E1=199947978,795958   G12=76903068,767676   U12=0,3   A1=1,16999994421006E-05
   Material=E   UnitWeight=23,5631216161854   UnitMass=2,40276960558926   E1=1   G12=0,416666666666667   U12=0,2   A1=9,89999952793124E-06
 
TABLE:  "MATERIAL PROPERTIES 03A - STEEL DATA"
   Material=A992Fy50   Fy=344737,894475789   Fu=448159,262818526   EffFy=379211,683923368   EffFu=492975,189100378   SSCurveOpt=Simple   SSHysType=Kinematic   SHard=0,015   SMax=0,11   SRup=0,17   FinalSlope=-0,1
 
TABLE:  "MATERIAL PROPERTIES 03B - CONCRETE DATA"
   Material=2E   Fc=27579,0315580631   eFc=27579,0315580631   LtWtConc=No   SSCurveOpt=Mander   SSHysType=Takeda   SFc=0,00221914   SCap=0,005   FinalSlope=-0,1   FAngle=0   DAngle=0
   Material=4000Psi   Fc=27579,0315580631   eFc=27579,0315580631   LtWtConc=No   SSCurveOpt=Mander   SSHysType=Takeda   SFc=0,00221914   SCap=0,005   FinalSlope=-0,1   FAngle=0   DAngle=0
   Material=E   Fc=27579,0315580631   eFc=27579,0315580631   LtWtConc=No   SSCurveOpt=Mander   SSHysType=Takeda   SFc=0,00221914   SCap=0,005   FinalSlope=-0,1   FAngle=0   DAngle=0
 
TABLE:  "MATERIAL PROPERTIES 03E - REBAR DATA"
   Material=A615Gr60   Fy=413685,473370947   Fu=620528,21005642   EffFy=455054,020708041   EffFu=682581,031062062   SSCurveOpt=Simple   SSHysType=Kinematic   SHard=0,01   SCap=0,09   FinalSlope=-0,1   UseCTDef=No
 
TABLE:  "MATERIAL PROPERTIES 06 - DAMPING PARAMETERS"
   Material=2E   ModalRatio=0   VisMass=0   VisStiff=0   HysMass=0   HysStiff=0
   Material=4000Psi   ModalRatio=0   VisMass=0   VisStiff=0   HysMass=0   HysStiff=0
   Material=A615Gr60   ModalRatio=0   VisMass=0   VisStiff=0   HysMass=0   HysStiff=0
   Material=A992Fy50   ModalRatio=0   VisMass=0   VisStiff=0   HysMass=0   HysStiff=0
   Material=E   ModalRatio=0   VisMass=0   VisStiff=0   HysMass=0   HysStiff=0
 
TABLE:  "OPTIONS - COLORS - DISPLAY"
   DeviceType=Screen   Points=Blue   LinesFrame=Blue   LinesFrmDL=Blue   LinesCable=Green   LinesTendon=Green   SpringLinks=Green   Restraints=Green   Releases=Green   Axes=Cyan   Text=Black   ShadowLines=Gray8Dark   GuideLines=Gray8Dark _
        Highlight=Red   Selection=10504778   AreaFillBot=Red   AreaFillTop=16744703   AreaFillSd=Red   AreaEdge=DarkRed   SolidF1=Red   SolidF2=Blue   SolidF3=Green   SolidF4=Yellow   SolidF5=White   SolidF6=Cyan   SolidEdge=DarkRed _
        Floor=Gray4   Background=White   BGLowLeft=White   BGLowRight=White   BGUpRight=White   Darkness=0,5
   DeviceType=Printer   Points=Gray8Dark   LinesFrame=Black   LinesFrmDL=Gray4   LinesCable=Black   LinesTendon=Black   SpringLinks=Gray8Dark   Restraints=Gray8Dark   Releases=Gray4   Axes=Black   Text=Black   ShadowLines=Gray4 _
        GuideLines=Gray4   Highlight=Black   Selection=Black   AreaFillBot=Gray4   AreaFillTop=Gray8Dark   AreaFillSd=Gray4   AreaEdge=Black   SolidF1=Gray1Light   SolidF2=Gray2   SolidF3=Gray3   SolidF4=Gray4   SolidF5=Gray5 _
        SolidF6=Gray6   SolidEdge=Black   Floor=Gray4   Background=White   BGLowLeft=White   BGLowRight=White   BGUpRight=White   Darkness=0,5
   DeviceType="Color Printer"   Points=Blue   LinesFrame=Blue   LinesFrmDL=Blue   LinesCable=Green   LinesTendon=Green   SpringLinks=Green   Restraints=Green   Releases=Green   Axes=Cyan   Text=Black   ShadowLines=Gray8Dark _
        GuideLines=Gray8Dark   Highlight=Red   Selection=10504778   AreaFillBot=Red   AreaFillTop=16744703   AreaFillSd=Red   AreaEdge=DarkRed   SolidF1=Red   SolidF2=Blue   SolidF3=Green   SolidF4=Yellow   SolidF5=White   SolidF6=Cyan _
        SolidEdge=DarkRed   Floor=Gray4   Background=White   BGLowLeft=White   BGLowRight=White   BGUpRight=White   Darkness=0,5
 
TABLE:  "OPTIONS - COLORS - OUTPUT"
   DeviceType=Screen   Contour1=13107400   Contour2=6553828   Contour3=Red   Contour4=16639   Contour5=Orange   Contour6=43775   Contour7=54527   Contour8=Yellow   Contour9=65408   Contour10=Green   Contour11=8453888   Contour12=Cyan _
        Contour13=16755200   Contour14=16733440   Contour15=Blue   Transpare=0,5   Ratio1=Cyan   Ratio2=Green   Ratio3=Yellow   Ratio4=Orange   Ratio5=Red   RatioNotD=Gray4   RatioNotC=Red   RatioVal1=0,5   RatioVal2=0,7   RatioVal3=0,9 _
        RatioVal4=1   DFillPos=Blue   DFillNeg=Red   DFillRPos=Green   DFillRNeg=Green
   DeviceType=Printer   Contour1=Black   Contour2=3158064   Contour3=4210752   Contour4=5263440   Contour5=6316128   Contour6=7368816   Contour7=Gray8Dark   Contour8=Gray7   Contour9=Gray6   Contour10=Gray5   Contour11=Gray4 _
        Contour12=Gray3   Contour13=Gray2   Contour14=Gray1Light   Contour15=White   Transpare=0   Ratio1=Gray2   Ratio2=Gray4   Ratio3=Gray8Dark   Ratio4=4210752   Ratio5=Black   RatioNotD=Gray4   RatioNotC=Black   RatioVal1=0,5 _
        RatioVal2=0,7   RatioVal3=0,9   RatioVal4=1   DFillPos=Gray8Dark   DFillNeg=Gray8Dark   DFillRPos=4210752   DFillRNeg=4210752
   DeviceType="Color Printer"   Contour1=13107400   Contour2=6553828   Contour3=Red   Contour4=16639   Contour5=Orange   Contour6=43775   Contour7=54527   Contour8=Yellow   Contour9=65408   Contour10=Green   Contour11=8453888 _
        Contour12=Cyan   Contour13=16755200   Contour14=16733440   Contour15=Blue   Transpare=0   Ratio1=Cyan   Ratio2=Green   Ratio3=Yellow   Ratio4=Orange   Ratio5=Red   RatioNotD=Gray4   RatioNotC=Red   RatioVal1=0,5   RatioVal2=0,7 _
        RatioVal3=0,9   RatioVal4=1   DFillPos=Blue   DFillNeg=Red   DFillRPos=Green   DFillRNeg=Green
 
TABLE:  "PREFERENCES - ALUMINUM DESIGN - AA-ASD 2000"
   THDesign=Envelopes   FrameType="Moment Frame"   SRatioLimit=1   MaxIter=1   LatFact=1,33333333333333   UseLatFact=No   Bridge=No
 
TABLE:  "PREFERENCES - COLD FORMED DESIGN - AISI-ASD96"
   THDesign=Envelopes   FrameType="Braced Frame"   SRatioLimit=1   MaxIter=1   OmegaBS=1,67   OmegaBUS=1,67   OmegaBLTB=1,67   OmegaVS=1,67   OmegaVNS=1,5   OmegaT=1,67   OmegaC=1,8
 
TABLE:  "PREFERENCES - CONCRETE DESIGN - ACI 318-14"
   THDesign=Envelopes   NumCurves=24   NumPoints=11   MinEccen=Yes   PatLLF=0,75   UFLimit=0,95   SeisCat=D   Rho=1   Sds=0,5   PhiT=0,9   PhiCTied=0,65   PhiCSpiral=0,75   PhiV=0,75   PhiVSeismic=0,6   PhiVJoint=0,85
 
TABLE:  "PREFERENCES - DIMENSIONAL"
   MergeTol=0,001   FineGrid=0,25   Nudge=0,25   SelectTol=3   SnapTol=12   SLineThick=1   PLineThick=4   MaxFont=8   MinFont=3   AutoZoom=10   ShrinkFact=70   TextFileLen=240
 
TABLE:  "PREFERENCES - STEEL DESIGN - AISC 360-10"
   THDesign=Envelopes   FrameType=SMF   PatLLF=0,75   SRatioLimit=0,95   MaxIter=1   SDC=D   SeisCode=Yes   SeisLoad=Yes   ImpFactor=1   SystemRho=1   SystemSds=0,5   SystemR=8   SystemCd=5,5   Omega0=3   Provision=LRFD _
        AMethod="Direct Analysis"   SOMethod="General 2nd Order"   SRMethod="Tau-b Fixed"   NLCoeff=0,002   PhiB=0,9   PhiC=0,9   PhiTY=0,9   PhiTF=0,75   PhiV=0,9   PhiVRolledI=1   PhiVT=0,9   PlugWeld=Yes   HSSWelding=ERW   HSSReduceT=No _
        CheckDefl=No   DLRat=120   SDLAndLLRat=120   LLRat=360   TotalRat=240   NetRat=240
 
TABLE:  "PROGRAM CONTROL"
   ProgramName=SAP2000   Version=18.2.0   CurrUnits="KN, m, C"   SteelCode="AISC 360-10"   ConcCode="ACI 318-14"   AlumCode="AA-ASD 2000"   ColdCode=AISI-ASD96   RegenHinge=Yes
 
TABLE:  "PROJECT INFORMATION"
   Item="Company Name"   Data=Microsoft
   Item="Client Name"
   Item="Project Name"
   Item="Project Number"
   Item="Model Name"
   Item="Model Description"
   Item="Revision Number"
   Item="Frame Type"
   Item=Engineer
   Item=Checker
   Item=Supervisor
   Item="Issue Code"
   Item="Design Code"
 
TABLE:  "REBAR SIZES"
   RebarID=#2   Area=3,2258E-05   Diameter=0,00635
   RebarID=#3   Area=7,09675996154547E-05   Diameter=0,009525
   RebarID=#4   Area=0,000129032001922727   Diameter=0,0127
   RebarID=#5   Area=0,000199999601538181   Diameter=0,015875
   RebarID=#6   Area=0,000283870398461819   Diameter=0,01905
   RebarID=#7   Area=0,000387096015381813   Diameter=0,022225
   RebarID=#8   Area=0,000509676413843632   Diameter=0,0254
   RebarID=#9   Area=0,00064516   Diameter=0,0286512005329132
   RebarID=#10   Area=0,00081935318769455   Diameter=0,0322579995155334
   RebarID=#11   Area=0,00100644956308365   Diameter=0,0358139991521835
   RebarID=#14   Area=0,00145161   Diameter=0,0430021989583969
   RebarID=#18   Area=0,00258064   Diameter=0,0573277992248535
   RebarID=10M   Area=0,000100000002655387   Diameter=0,011300000667572
   RebarID=15M   Area=0,000200000005310774   Diameter=0,0159999999403954
   RebarID=20M   Area=0,000300000017579794   Diameter=0,0194999997854233
   RebarID=25M   Area=0,000500000022890568   Diameter=0,0252000016093254
   RebarID=30M   Area=0,000700000008974075   Diameter=0,0299000008821487
   RebarID=35M   Area=0,00100000004578114   Diameter=0,0357000011444092
   RebarID=45M   Area=0,00150000010712624   Diameter=0,0437000003576279
   RebarID=55M   Area=0,00250000007599831   Diameter=0,0564000033855438
   RebarID=6d   Area=2,83000004149973E-05   Diameter=0,006000000166893
   RebarID=8d   Area=5,02999995571375E-05   Diameter=0,00799999997019768
   RebarID=10d   Area=7,85000013634562E-05   Diameter=0,00999999977350235
   RebarID=12d   Area=0,000113000009249449   Diameter=0,012000000333786
   RebarID=14d   Area=0,000154000010818839   Diameter=0,0140000008940697
   RebarID=16d   Area=0,000201000015431643   Diameter=0,0159999999403954
   RebarID=20d   Area=0,000314000005453825   Diameter=0,0199999995470047
   RebarID=25d   Area=0,000491000008711815   Diameter=0,0250000001907349
   RebarID=26d   Area=0,000531000029001236   Diameter=0,0259999997138977
   RebarID=28d   Area=0,000616000043275356   Diameter=0,0280000017881393
   RebarID=N12   Area=0,000113000009249449   Diameter=0,012000000333786
   RebarID=N16   Area=0,000201000015431643   Diameter=0,0159999999403954
   RebarID=N20   Area=0,000314000005453825   Diameter=0,0199999995470047
   RebarID=N24   Area=0,000452000036997795   Diameter=0,024000000667572
   RebarID=N28   Area=0,000616000043275356   Diameter=0,0280000017881393
   RebarID=N32   Area=0,00080400006172657   Diameter=0,0319999998807907
   RebarID=N36   Area=0,00102000001747131   Diameter=0,036000001001358
 
END TABLE DATA
